<?xml version="1.0" encoding="ISO-8859-1"?>
<febio_spec version="4.0">
	<Module type="solid">
		<units>SI</units>
	</Module>
	<Control>
		<analysis>STATIC</analysis>
		<time_steps>10</time_steps>
		<step_size>0.1</step_size>
		<plot_zero_state>0</plot_zero_state>
		<plot_range>0,-1</plot_range>
		<plot_level>PLOT_MAJOR_ITRS</plot_level>
		<output_level>OUTPUT_MAJOR_ITRS</output_level>
		<plot_stride>1</plot_stride>
		<output_stride>1</output_stride>
		<adaptor_re_solve>1</adaptor_re_solve>
		<time_stepper type="default">
			<max_retries>5</max_retries>
			<opt_iter>11</opt_iter>
			<dtmin>0</dtmin>
			<dtmax>0.1</dtmax>
			<aggressiveness>0</aggressiveness>
			<cutback>0.5</cutback>
			<dtforce>0</dtforce>
		</time_stepper>
		<solver type="solid">
			<symmetric_stiffness>preferred</symmetric_stiffness>
			<equation_scheme>staggered</equation_scheme>
			<equation_order>default</equation_order>
			<optimize_bw>0</optimize_bw>
			<lstol>0.9</lstol>
			<lsmin>0.01</lsmin>
			<lsiter>5</lsiter>
			<ls_check_jacobians>0</ls_check_jacobians>
			<max_refs>15</max_refs>
			<check_zero_diagonal>0</check_zero_diagonal>
			<zero_diagonal_tol>0</zero_diagonal_tol>
			<force_partition>0</force_partition>
			<reform_each_time_step>1</reform_each_time_step>
			<reform_augment>0</reform_augment>
			<diverge_reform>1</diverge_reform>
			<min_residual>1e-20</min_residual>
			<max_residual>0</max_residual>
			<dtol>0.001</dtol>
			<etol>0.01</etol>
			<rtol>0</rtol>
			<rhoi>-2</rhoi>
			<alpha>1</alpha>
			<beta>0.25</beta>
			<gamma>0.5</gamma>
			<logSolve>0</logSolve>
			<arc_length>0</arc_length>
			<arc_length_scale>0</arc_length_scale>
			<qn_method type="BFGS">
				<max_ups>10</max_ups>
				<max_buffer_size>0</max_buffer_size>
				<cycle_buffer>1</cycle_buffer>
				<cmax>100000</cmax>
			</qn_method>
		</solver>
	</Control>
	<Globals>
		<Constants>
			<T>0</T>
			<P>0</P>
			<R>8.31446</R>
			<Fc>96485.3</Fc>
		</Constants>
	</Globals>
	<Material>
		<material id="1" name="Material1" type="neo-Hookean">
			<density>1</density>
			<E>1000000</E>
			<v>0.25</v>
		</material>
	</Material>
	<Mesh>
		<Nodes name="Object1">
			<node id="1">-0.5152757,-0.710573,10</node>
			<node id="2">-0.5152757,-0.710573,10.1</node>
			<node id="3">-0.5152757,-0.710573,10.2</node>
			<node id="4">-0.5152757,-0.710573,10.3</node>
			<node id="5">-0.5152757,-0.710573,10.4</node>
			<node id="6">-0.5152757,-0.710573,10.5</node>
			<node id="7">-0.5152757,-0.710573,10.6</node>
			<node id="8">-0.5152757,-0.710573,10.7</node>
			<node id="9">-0.5152757,-0.710573,10.8</node>
			<node id="10">-0.5152757,-0.710573,10.9</node>
			<node id="11">-0.5152757,-0.710573,11</node>
			<node id="12">-0.5152757,-0.710573,11.1</node>
			<node id="13">-0.5152757,-0.710573,11.2</node>
			<node id="14">-0.5152757,-0.710573,11.3</node>
			<node id="15">-0.5152757,-0.710573,11.4</node>
			<node id="16">-0.5152757,-0.710573,11.5</node>
			<node id="17">-0.5152757,-0.710573,11.6</node>
			<node id="18">-0.5152757,-0.710573,11.7</node>
			<node id="19">-0.5152757,-0.710573,11.8</node>
			<node id="20">-0.5152757,-0.710573,11.9</node>
<!-- ... 6151 like lines cut -->
		</Nodes>
		<Elements type="tet4" name="Part2">
			<elem id="1">562,613,52,614</elem>
			<elem id="2">1,562,52,614</elem>
			<elem id="3">1,614,52,53</elem>
			<elem id="4">562,563,614,1</elem>
			<elem id="5">2,53,563,1</elem>
			<elem id="6">563,53,614,1</elem>
			<elem id="7">563,614,53,615</elem>
			<elem id="8">2,563,53,615</elem>
			<elem id="9">2,615,53,54</elem>
			<elem id="10">563,564,615,2</elem>
			<elem id="11">3,54,564,2</elem>
			<elem id="12">564,54,615,2</elem>
			<elem id="13">564,615,54,616</elem>
			<elem id="14">3,564,54,616</elem>
			<elem id="15">3,616,54,55</elem>
			<elem id="16">564,565,616,3</elem>
			<elem id="17">4,55,565,3</elem>
			<elem id="18">565,55,616,3</elem>
			<elem id="19">565,616,55,617</elem>
			<elem id="20">4,565,55,617</elem>
<!-- ... 29980 like lines cut -->
		</Elements>
		<Surface name="zmax">
			<tri3 id="1">51,612,102</tri3>
			<tri3 id="2">612,663,102</tri3>
			<tri3 id="3">102,663,153</tri3>
			<tri3 id="4">663,714,153</tri3>
			<tri3 id="5">153,714,204</tri3>
			<tri3 id="6">714,765,204</tri3>
			<tri3 id="7">204,765,255</tri3>
			<tri3 id="8">765,816,255</tri3>
			<tri3 id="9">255,816,306</tri3>
			<tri3 id="10">816,867,306</tri3>
			<tri3 id="11">306,867,357</tri3>
			<tri3 id="12">867,918,357</tri3>
			<tri3 id="13">357,918,408</tri3>
			<tri3 id="14">918,969,408</tri3>
			<tri3 id="15">408,969,459</tri3>
			<tri3 id="16">969,1020,459</tri3>
			<tri3 id="17">459,1020,510</tri3>
			<tri3 id="18">1020,1071,510</tri3>
			<tri3 id="19">510,1071,561</tri3>
			<tri3 id="20">1071,1122,561</tri3>
<!-- ... 180 like lines cut -->
		</Surface>
		<Surface name="zmin">
			<tri3 id="1">460,511,1021</tri3>
			<tri3 id="2">1021,511,1072</tri3>
			<tri3 id="3">409,460,970</tri3>
			<tri3 id="4">970,460,1021</tri3>
			<tri3 id="5">358,409,919</tri3>
			<tri3 id="6">919,409,970</tri3>
			<tri3 id="7">307,358,868</tri3>
			<tri3 id="8">868,358,919</tri3>
			<tri3 id="9">256,307,817</tri3>
			<tri3 id="10">817,307,868</tri3>
			<tri3 id="11">205,256,766</tri3>
			<tri3 id="12">766,256,817</tri3>
			<tri3 id="13">154,205,715</tri3>
			<tri3 id="14">715,205,766</tri3>
			<tri3 id="15">103,154,664</tri3>
			<tri3 id="16">664,154,715</tri3>
			<tri3 id="17">52,103,613</tri3>
			<tri3 id="18">613,103,664</tri3>
			<tri3 id="19">1,52,562</tri3>
			<tri3 id="20">562,52,613</tri3>
<!-- ... 180 like lines cut -->
		</Surface>
		<Surface name="ZeroDisplacement1">
			<tri3 id="1">460,511,1021</tri3>
			<tri3 id="2">1021,511,1072</tri3>
			<tri3 id="3">409,460,970</tri3>
			<tri3 id="4">970,460,1021</tri3>
			<tri3 id="5">358,409,919</tri3>
			<tri3 id="6">919,409,970</tri3>
			<tri3 id="7">307,358,868</tri3>
			<tri3 id="8">868,358,919</tri3>
			<tri3 id="9">256,307,817</tri3>
			<tri3 id="10">817,307,868</tri3>
			<tri3 id="11">205,256,766</tri3>
			<tri3 id="12">766,256,817</tri3>
			<tri3 id="13">154,205,715</tri3>
			<tri3 id="14">715,205,766</tri3>
			<tri3 id="15">103,154,664</tri3>
			<tri3 id="16">664,154,715</tri3>
			<tri3 id="17">52,103,613</tri3>
			<tri3 id="18">613,103,664</tri3>
			<tri3 id="19">1,52,562</tri3>
			<tri3 id="20">562,52,613</tri3>
<!-- ... 180 like lines cut -->
		</Surface>
		<Surface name="Force2">
			<tri3 id="1">51,612,102</tri3>
			<tri3 id="2">612,663,102</tri3>
			<tri3 id="3">102,663,153</tri3>
			<tri3 id="4">663,714,153</tri3>
			<tri3 id="5">153,714,204</tri3>
			<tri3 id="6">714,765,204</tri3>
			<tri3 id="7">204,765,255</tri3>
			<tri3 id="8">765,816,255</tri3>
			<tri3 id="9">255,816,306</tri3>
			<tri3 id="10">816,867,306</tri3>
			<tri3 id="11">306,867,357</tri3>
			<tri3 id="12">867,918,357</tri3>
			<tri3 id="13">357,918,408</tri3>
			<tri3 id="14">918,969,408</tri3>
			<tri3 id="15">408,969,459</tri3>
			<tri3 id="16">969,1020,459</tri3>
			<tri3 id="17">459,1020,510</tri3>
			<tri3 id="18">1020,1071,510</tri3>
			<tri3 id="19">510,1071,561</tri3>
			<tri3 id="20">1071,1122,561</tri3>
<!-- ... 180 like lines cut -->
		</Surface>
	</Mesh>
	<MeshDomains>
		<SolidDomain name="Part2" mat="Material1"/>
	</MeshDomains>
	<Boundary>
		<bc name="ZeroDisplacement1" node_set="@surface:ZeroDisplacement1" type="zero displacement">
			<x_dof>1</x_dof>
			<y_dof>1</y_dof>
			<z_dof>1</z_dof>
		</bc>
	</Boundary>
	<Loads>
		<surface_load name="Force2" surface="Force2" type="force">
			<scale lc="1">1</scale>
			<force>0,10000,0</force>
			<shell_bottom>0</shell_bottom>
		</surface_load>
	</Loads>
	<LoadData>
		<load_controller id="1" name="LC2" type="loadcurve">
			<interpolate>LINEAR</interpolate>
			<extend>CONSTANT</extend>
			<points>
				<pt>0,0</pt>
				<pt>1,1</pt>
			</points>
		</load_controller>
	</LoadData>
	<Output>
		<plotfile type="febio">
			<var type="displacement"/>
			<var type="stress"/>
			<var type="relative volume"/>
		</plotfile>
	</Output>
</febio_spec>
